../datasets/input/BACE/poses/01/ligand.pdb
 OpenBabel02191913393D

 49 52  0  0  1  0  0  0  0  0999 V2000
   11.8160   -1.9870    1.1350 C   0  0  0  0  0  0  0  0  0  0  0  0
   13.0890   -2.4270    0.5570 N   0  0  0  0  0  0  0  0  0  0  0  0
   14.2590   -2.5970    1.1960 C   0  0  1  0  0  0  0  0  0  0  0  0
   14.4700   -2.4090    2.5070 N   0  0  0  0  0  0  0  0  0  0  0  0
   15.2260   -2.9960    0.3600 N   0  3  0  0  0  0  0  0  0  0  0  0
   14.7420   -3.1090   -1.0220 C   0  0  1  0  0  0  0  0  0  0  0  0
   15.3910   -2.0430   -1.9330 C   0  0  0  0  0  0  0  0  0  0  0  0
   15.9760   -2.3790   -3.1780 C   0  0  0  0  0  0  0  0  0  0  0  0
   16.4920   -1.3790   -4.0130 C   0  0  0  0  0  0  0  0  0  0  0  0
   16.3750   -0.0270   -3.6530 C   0  0  0  0  0  0  0  0  0  0  0  0
   15.8020    0.3580   -2.4240 C   0  0  0  0  0  0  0  0  0  0  0  0
   15.5990    1.7920   -2.0990 C   0  0  0  0  0  0  0  0  0  0  0  0
   15.3380    2.7310   -3.1260 C   0  0  0  0  0  0  0  0  0  0  0  0
   15.0420    4.0760   -2.8330 C   0  0  0  0  0  0  0  0  0  0  0  0
   15.0160    4.5160   -1.5000 C   0  0  0  0  0  0  0  0  0  0  0  0
   15.3140    3.6150   -0.4660 C   0  0  0  0  0  0  0  0  0  0  0  0
   15.3090    4.1770    1.1650 Cl  0  0  0  0  0  0  0  0  0  0  0  0
   15.6020    2.2680   -0.7660 C   0  0  0  0  0  0  0  0  0  0  0  0
   15.3590   -0.6710   -1.5580 C   0  0  0  0  0  0  0  0  0  0  0  0
   14.8190   -4.5910   -1.5370 C   0  0  0  0  0  0  0  0  0  0  0  0
   16.1990   -5.2610   -1.5320 C   0  0  0  0  0  0  0  0  0  0  0  0
   15.9160   -6.7440   -1.7750 C   0  0  0  0  0  0  0  0  0  0  0  0
   14.5200   -7.0040   -1.1990 C   0  0  0  0  0  0  0  0  0  0  0  0
   13.9600   -5.6350   -0.7930 C   0  0  0  0  0  0  0  0  0  0  0  0
   13.2680   -2.7200   -0.8250 C   0  0  0  0  0  0  0  0  0  0  0  0
   12.3710   -2.6830   -1.6740 O   0  0  0  0  0  0  0  0  0  0  0  0
   11.7130   -0.9110    1.0000 H   0  0  0  0  0  0  0  0  0  0  0  0
   10.9700   -2.4710    0.6460 H   0  0  0  0  0  0  0  0  0  0  0  0
   11.7670   -2.2190    2.1980 H   0  0  0  0  0  0  0  0  0  0  0  0
   13.7670   -2.0580    3.1560 H   0  0  0  0  0  0  0  0  0  0  0  0
   16.2090   -3.0730    0.6180 H   0  0  0  0  0  0  0  0  0  0  0  0
   16.0310   -3.3900   -3.5470 H   0  0  0  0  0  0  0  0  0  0  0  0
   16.9450   -1.6510   -4.9560 H   0  0  0  0  0  0  0  0  0  0  0  0
   16.7180    0.7190   -4.3520 H   0  0  0  0  0  0  0  0  0  0  0  0
   15.3100    2.4110   -4.1570 H   0  0  0  0  0  0  0  0  0  0  0  0
   14.8050    4.7700   -3.6260 H   0  0  0  0  0  0  0  0  0  0  0  0
   14.7670    5.5420   -1.2680 H   0  0  0  0  0  0  0  0  0  0  0  0
   15.8210    1.5920    0.0440 H   0  0  0  0  0  0  0  0  0  0  0  0
   14.9090   -0.3860   -0.6190 H   0  0  0  0  0  0  0  0  0  0  0  0
   14.4540   -4.6000   -2.5660 H   0  0  0  0  0  0  0  0  0  0  0  0
   16.8690   -4.8720   -2.2910 H   0  0  0  0  0  0  0  0  0  0  0  0
   16.6840   -5.1340   -0.5620 H   0  0  0  0  0  0  0  0  0  0  0  0
   15.9010   -6.9410   -2.8480 H   0  0  0  0  0  0  0  0  0  0  0  0
   16.6780   -7.3840   -1.3290 H   0  0  0  0  0  0  0  0  0  0  0  0
   13.8880   -7.4730   -1.9550 H   0  0  0  0  0  0  0  0  0  0  0  0
   14.5570   -7.6810   -0.3440 H   0  0  0  0  0  0  0  0  0  0  0  0
   14.0660   -5.5160    0.2870 H   0  0  0  0  0  0  0  0  0  0  0  0
   12.8980   -5.5580   -1.0320 H   0  0  0  0  0  0  0  0  0  0  0  0
   15.4200   -2.4960    2.8750 H   0  0  0  0  0  0  0  0  0  0  0  0
  1  2  1  0  0  0  0
  1 27  1  0  0  0  0
  1 28  1  0  0  0  0
  1 29  1  0  0  0  0
  2  3  1  0  0  0  0
  2 25  1  0  0  0  0
  3  4  1  1  0  0  0
  3  5  1  0  0  0  0
  4 30  1  0  0  0  0
  4 49  1  0  0  0  0
  5  6  1  0  0  0  0
  5 31  1  0  0  0  0
  6  7  1  6  0  0  0
  6 20  1  0  0  0  0
  6 25  1  0  0  0  0
  7  8  2  0  0  0  0
  7 19  1  0  0  0  0
  8  9  1  0  0  0  0
  8 32  1  0  0  0  0
  9 10  2  0  0  0  0
  9 33  1  0  0  0  0
 10 11  1  0  0  0  0
 10 34  1  0  0  0  0
 11 12  1  0  0  0  0
 11 19  2  0  0  0  0
 12 13  2  0  0  0  0
 12 18  1  0  0  0  0
 13 14  1  0  0  0  0
 13 35  1  0  0  0  0
 14 15  2  0  0  0  0
 14 36  1  0  0  0  0
 15 16  1  0  0  0  0
 15 37  1  0  0  0  0
 16 17  1  0  0  0  0
 16 18  2  0  0  0  0
 18 38  1  0  0  0  0
 19 39  1  0  0  0  0
 20 21  1  0  0  0  0
 20 24  1  0  0  0  0
 20 40  1  0  0  0  0
 21 22  1  0  0  0  0
 21 41  1  0  0  0  0
 21 42  1  0  0  0  0
 22 23  1  0  0  0  0
 22 43  1  0  0  0  0
 22 44  1  0  0  0  0
 23 24  1  0  0  0  0
 23 45  1  0  0  0  0
 23 46  1  0  0  0  0
 24 47  1  0  0  0  0
 24 48  1  0  0  0  0
 25 26  2  0  0  0  0
M  CHG  1   5   1
M  END
