../datasets/input/BACE/poses/02/ligand.pdb
 OpenBabel02191913393D

 43 46  0  0  1  0  0  0  0  0999 V2000
   11.7860   -2.3270    1.0540 C   0  0  0  0  0  0  0  0  0  0  0  0
   13.1440   -2.5990    0.5660 N   0  0  0  0  0  0  0  0  0  0  0  0
   14.2730   -2.5330    1.2870 C   0  0  1  0  0  0  0  0  0  0  0  0
   14.3650   -2.2940    2.6000 N   0  0  0  0  0  0  0  0  0  0  0  0
   15.3470   -2.7620    0.5350 N   0  3  0  0  0  0  0  0  0  0  0  0
   15.0190   -3.0680   -0.8500 C   0  0  1  0  0  0  0  0  0  0  0  0
   15.5630   -1.9950   -1.8100 C   0  0  0  0  0  0  0  0  0  0  0  0
   16.1890   -2.3500   -3.0280 C   0  0  0  0  0  0  0  0  0  0  0  0
   16.6160   -1.3550   -3.9200 C   0  0  0  0  0  0  0  0  0  0  0  0
   16.4010    0.0020   -3.6210 C   0  0  0  0  0  0  0  0  0  0  0  0
   15.8080    0.4000   -2.4040 C   0  0  0  0  0  0  0  0  0  0  0  0
   15.5590    1.8330   -2.1090 C   0  0  0  0  0  0  0  0  0  0  0  0
   15.2650    2.7460   -3.1490 C   0  0  0  0  0  0  0  0  0  0  0  0
   14.9440    4.0910   -2.8730 C   0  0  0  0  0  0  0  0  0  0  0  0
   14.9240    4.5520   -1.5460 C   0  0  0  0  0  0  0  0  0  0  0  0
   15.2490    3.6730   -0.5010 C   0  0  0  0  0  0  0  0  0  0  0  0
   15.2430    4.2510    1.1250 Cl  0  0  0  0  0  0  0  0  0  0  0  0
   15.5650    2.3290   -0.7840 C   0  0  0  0  0  0  0  0  0  0  0  0
   15.4130   -0.6170   -1.5040 C   0  0  0  0  0  0  0  0  0  0  0  0
   15.5900   -4.4690   -1.1330 C   0  0  0  0  0  0  0  0  0  0  0  0
   15.3460   -5.2330   -2.4200 C   0  0  0  0  0  0  0  0  0  0  0  0
   16.7360   -4.7540   -2.0800 C   0  0  0  0  0  0  0  0  0  0  0  0
   13.4810   -2.9580   -0.7770 C   0  0  0  0  0  0  0  0  0  0  0  0
   12.6570   -3.1080   -1.6840 O   0  0  0  0  0  0  0  0  0  0  0  0
   11.0290   -2.7770    0.4110 H   0  0  0  0  0  0  0  0  0  0  0  0
   11.6520   -2.7180    2.0620 H   0  0  0  0  0  0  0  0  0  0  0  0
   11.6180   -1.2510    1.0770 H   0  0  0  0  0  0  0  0  0  0  0  0
   13.5840   -2.0390    3.2010 H   0  0  0  0  0  0  0  0  0  0  0  0
   16.3100   -2.7540    0.8770 H   0  0  0  0  0  0  0  0  0  0  0  0
   16.3450   -3.3790   -3.3170 H   0  0  0  0  0  0  0  0  0  0  0  0
   17.0900   -1.6330   -4.8520 H   0  0  0  0  0  0  0  0  0  0  0  0
   16.6980    0.7400   -4.3490 H   0  0  0  0  0  0  0  0  0  0  0  0
   15.2370    2.4080   -4.1740 H   0  0  0  0  0  0  0  0  0  0  0  0
   14.6860    4.7670   -3.6750 H   0  0  0  0  0  0  0  0  0  0  0  0
   14.6580    5.5770   -1.3280 H   0  0  0  0  0  0  0  0  0  0  0  0
   15.8090    1.6730    0.0350 H   0  0  0  0  0  0  0  0  0  0  0  0
   14.9320   -0.3280   -0.5820 H   0  0  0  0  0  0  0  0  0  0  0  0
   15.5720   -5.0930   -0.2430 H   0  0  0  0  0  0  0  0  0  0  0  0
   15.1570   -6.3020   -2.3390 H   0  0  0  0  0  0  0  0  0  0  0  0
   14.8360   -4.7370   -3.2440 H   0  0  0  0  0  0  0  0  0  0  0  0
   17.1290   -3.9420   -2.6800 H   0  0  0  0  0  0  0  0  0  0  0  0
   17.4700   -5.4960   -1.7710 H   0  0  0  0  0  0  0  0  0  0  0  0
   15.2860   -2.2900    3.0400 H   0  0  0  0  0  0  0  0  0  0  0  0
  1  2  1  0  0  0  0
  1 25  1  0  0  0  0
  1 26  1  0  0  0  0
  1 27  1  0  0  0  0
  2  3  1  0  0  0  0
  2 23  1  0  0  0  0
  3  4  1  1  0  0  0
  3  5  1  0  0  0  0
  4 28  1  0  0  0  0
  4 43  1  0  0  0  0
  5  6  1  0  0  0  0
  5 29  1  0  0  0  0
  6  7  1  6  0  0  0
  6 20  1  0  0  0  0
  6 23  1  0  0  0  0
  7  8  2  0  0  0  0
  7 19  1  0  0  0  0
  8  9  1  0  0  0  0
  8 30  1  0  0  0  0
  9 10  2  0  0  0  0
  9 31  1  0  0  0  0
 10 11  1  0  0  0  0
 10 32  1  0  0  0  0
 11 12  1  0  0  0  0
 11 19  2  0  0  0  0
 12 13  2  0  0  0  0
 12 18  1  0  0  0  0
 13 14  1  0  0  0  0
 13 33  1  0  0  0  0
 14 15  2  0  0  0  0
 14 34  1  0  0  0  0
 15 16  1  0  0  0  0
 15 35  1  0  0  0  0
 16 18  2  0  0  0  0
 16 17  1  0  0  0  0
 18 36  1  0  0  0  0
 19 37  1  0  0  0  0
 20 21  1  0  0  0  0
 20 22  1  0  0  0  0
 20 38  1  0  0  0  0
 21 22  1  0  0  0  0
 21 39  1  0  0  0  0
 21 40  1  0  0  0  0
 22 41  1  0  0  0  0
 22 42  1  0  0  0  0
 23 24  2  0  0  0  0
M  CHG  1   5   1
M  END
