../datasets/input/BACE/poses/30/ligand.pdb
 OpenBabel02191913393D

 46 49  0  0  1  0  0  0  0  0999 V2000
   11.6950   -2.1440    1.3060 C   0  0  0  0  0  0  0  0  0  0  0  0
   13.0020   -2.3990    0.7000 N   0  0  0  0  0  0  0  0  0  0  0  0
   14.1920   -2.4860    1.3200 C   0  0  1  0  0  0  0  0  0  0  0  0
   14.4010   -2.3560    2.6350 N   0  0  0  0  0  0  0  0  0  0  0  0
   15.1810   -2.7370    0.4600 N   0  3  0  0  0  0  0  0  0  0  0  0
   14.6760   -2.9530   -0.8940 C   0  0  2  0  0  0  0  0  0  0  0  0
   14.8450   -4.4630   -1.1960 C   0  0  0  0  0  0  0  0  0  0  0  0
   16.0870   -4.9310   -1.6680 C   0  0  0  0  0  0  0  0  0  0  0  0
   16.3080   -6.2910   -1.9320 C   0  0  0  0  0  0  0  0  0  0  0  0
   15.3010   -7.2310   -1.6610 C   0  0  0  0  0  0  0  0  0  0  0  0
   14.0780   -6.8050   -1.1180 C   0  0  0  0  0  0  0  0  0  0  0  0
   13.8520   -5.4360   -0.8930 C   0  0  0  0  0  0  0  0  0  0  0  0
   15.2710   -1.9270   -1.8910 C   0  0  0  0  0  0  0  0  0  0  0  0
   15.7220   -2.2890   -3.1820 C   0  0  0  0  0  0  0  0  0  0  0  0
   16.2630   -1.3220   -4.0410 C   0  0  0  0  0  0  0  0  0  0  0  0
   16.2450    0.0370   -3.6850 C   0  0  0  0  0  0  0  0  0  0  0  0
   15.7220    0.4600   -2.4440 C   0  0  0  0  0  0  0  0  0  0  0  0
   15.5140    1.8980   -2.1460 C   0  0  0  0  0  0  0  0  0  0  0  0
   15.2250    2.8240   -3.1770 C   0  0  0  0  0  0  0  0  0  0  0  0
   14.9110    4.1190   -2.9760 N   0  0  0  0  0  0  0  0  0  0  0  0
   14.8690    4.5740   -1.7090 C   0  0  0  0  0  0  0  0  0  0  0  0
   15.1720    3.7660   -0.6030 C   0  0  0  0  0  0  0  0  0  0  0  0
   15.1260    4.3200    0.7380 C   0  0  0  0  0  0  0  0  0  0  0  0
   15.0920    4.7640    1.8040 N   0  0  0  0  0  0  0  0  0  0  0  0
   15.5070    2.4170   -0.8300 C   0  0  0  0  0  0  0  0  0  0  0  0
   15.3080   -0.5490   -1.5400 C   0  0  0  0  0  0  0  0  0  0  0  0
   13.1930   -2.6020   -0.6950 C   0  0  0  0  0  0  0  0  0  0  0  0
   12.2930   -2.5480   -1.5430 O   0  0  0  0  0  0  0  0  0  0  0  0
   11.3750   -1.1300    1.0630 H   0  0  0  0  0  0  0  0  0  0  0  0
   10.9510   -2.8410    0.9210 H   0  0  0  0  0  0  0  0  0  0  0  0
   11.7360   -2.2650    2.3860 H   0  0  0  0  0  0  0  0  0  0  0  0
   15.3520   -2.4190    2.9990 H   0  0  0  0  0  0  0  0  0  0  0  0
   16.1640   -2.8380    0.7120 H   0  0  0  0  0  0  0  0  0  0  0  0
   16.8740   -4.2220   -1.8420 H   0  0  0  0  0  0  0  0  0  0  0  0
   17.2610   -6.6010   -2.3270 H   0  0  0  0  0  0  0  0  0  0  0  0
   15.4670   -8.2800   -1.8380 H   0  0  0  0  0  0  0  0  0  0  0  0
   13.3210   -7.5360   -0.8630 H   0  0  0  0  0  0  0  0  0  0  0  0
   12.9010   -5.1790   -0.4580 H   0  0  0  0  0  0  0  0  0  0  0  0
   15.6770   -3.3050   -3.5440 H   0  0  0  0  0  0  0  0  0  0  0  0
   16.6580   -1.6220   -5.0020 H   0  0  0  0  0  0  0  0  0  0  0  0
   16.6030    0.7570   -4.4050 H   0  0  0  0  0  0  0  0  0  0  0  0
   15.1800    2.5040   -4.2060 H   0  0  0  0  0  0  0  0  0  0  0  0
   14.5900    5.6110   -1.5790 H   0  0  0  0  0  0  0  0  0  0  0  0
   15.7410    1.7790    0.0070 H   0  0  0  0  0  0  0  0  0  0  0  0
   14.9210   -0.2490   -0.5790 H   0  0  0  0  0  0  0  0  0  0  0  0
   13.6860   -2.0580    3.2950 H   0  0  0  0  0  0  0  0  0  0  0  0
  1  2  1  0  0  0  0
  1 29  1  0  0  0  0
  1 30  1  0  0  0  0
  1 31  1  0  0  0  0
  2  3  1  0  0  0  0
  2 27  1  0  0  0  0
  3  4  1  1  0  0  0
  3  5  1  0  0  0  0
  4 32  1  0  0  0  0
  4 46  1  0  0  0  0
  5  6  1  0  0  0  0
  5 33  1  0  0  0  0
  6  7  1  6  0  0  0
  6 13  1  0  0  0  0
  6 27  1  0  0  0  0
  7  8  2  0  0  0  0
  7 12  1  0  0  0  0
  8  9  1  0  0  0  0
  8 34  1  0  0  0  0
  9 10  2  0  0  0  0
  9 35  1  0  0  0  0
 10 11  1  0  0  0  0
 10 36  1  0  0  0  0
 11 12  2  0  0  0  0
 11 37  1  0  0  0  0
 12 38  1  0  0  0  0
 13 14  2  0  0  0  0
 13 26  1  0  0  0  0
 14 15  1  0  0  0  0
 14 39  1  0  0  0  0
 15 16  2  0  0  0  0
 15 40  1  0  0  0  0
 16 17  1  0  0  0  0
 16 41  1  0  0  0  0
 17 18  1  0  0  0  0
 17 26  2  0  0  0  0
 18 19  2  0  0  0  0
 18 25  1  0  0  0  0
 19 20  1  0  0  0  0
 19 42  1  0  0  0  0
 20 21  2  0  0  0  0
 21 22  1  0  0  0  0
 21 43  1  0  0  0  0
 22 23  1  0  0  0  0
 22 25  2  0  0  0  0
 23 24  3  0  0  0  0
 25 44  1  0  0  0  0
 26 45  1  0  0  0  0
 27 28  2  0  0  0  0
M  CHG  1   5   1
M  END
