../datasets/input/BACE/poses/32/ligand.pdb
 OpenBabel02191913393D

 46 49  0  0  1  0  0  0  0  0999 V2000
   11.7150   -2.2820    1.2490 C   0  0  0  0  0  0  0  0  0  0  0  0
   13.0380   -2.6190    0.7080 N   0  0  0  0  0  0  0  0  0  0  0  0
   14.2060   -2.6010    1.3670 C   0  0  1  0  0  0  0  0  0  0  0  0
   14.3790   -2.3440    2.6660 N   0  0  0  0  0  0  0  0  0  0  0  0
   15.2290   -2.8860    0.5630 N   0  3  0  0  0  0  0  0  0  0  0  0
   14.8080   -3.2130   -0.8000 C   0  0  2  0  0  0  0  0  0  0  0  0
   15.1470   -4.6960   -1.0820 C   0  0  0  0  0  0  0  0  0  0  0  0
   16.3600   -5.2250   -0.5920 C   0  0  0  0  0  0  0  0  0  0  0  0
   16.7230   -6.5670   -0.7950 C   0  0  0  0  0  0  0  0  0  0  0  0
   15.8490   -7.4280   -1.4700 C   0  0  0  0  0  0  0  0  0  0  0  0
   14.6350   -6.9310   -1.9720 C   0  0  0  0  0  0  0  0  0  0  0  0
   14.2940   -5.5760   -1.7920 C   0  0  0  0  0  0  0  0  0  0  0  0
   15.3970   -2.2030   -1.8010 C   0  0  0  0  0  0  0  0  0  0  0  0
   15.9970   -2.6090   -3.0160 C   0  0  0  0  0  0  0  0  0  0  0  0
   16.4800   -1.6420   -3.9170 C   0  0  0  0  0  0  0  0  0  0  0  0
   16.3580   -0.2710   -3.6260 C   0  0  0  0  0  0  0  0  0  0  0  0
   15.7920    0.1720   -2.4130 C   0  0  0  0  0  0  0  0  0  0  0  0
   15.6400    1.6150   -2.0980 C   0  0  0  0  0  0  0  0  0  0  0  0
   15.4540    2.5840   -3.1120 C   0  0  0  0  0  0  0  0  0  0  0  0
   15.2100    3.9360   -2.7900 C   0  0  0  0  0  0  0  0  0  0  0  0
   15.1600    4.3480   -1.4470 C   0  0  0  0  0  0  0  0  0  0  0  0
   15.3890    3.4120   -0.4270 C   0  0  0  0  0  0  0  0  0  0  0  0
   15.6320    2.0660   -0.7580 C   0  0  0  0  0  0  0  0  0  0  0  0
   15.3280   -0.8150   -1.5130 C   0  0  0  0  0  0  0  0  0  0  0  0
   13.2880   -2.9670   -0.6530 C   0  0  0  0  0  0  0  0  0  0  0  0
   12.4110   -3.0210   -1.5240 O   0  0  0  0  0  0  0  0  0  0  0  0
   11.5250   -1.2190    1.1030 H   0  0  0  0  0  0  0  0  0  0  0  0
   10.9270   -2.8410    0.7450 H   0  0  0  0  0  0  0  0  0  0  0  0
   11.6590   -2.5030    2.3140 H   0  0  0  0  0  0  0  0  0  0  0  0
   15.3230   -2.3530    3.0550 H   0  0  0  0  0  0  0  0  0  0  0  0
   16.2070   -2.8880    0.8500 H   0  0  0  0  0  0  0  0  0  0  0  0
   17.0260   -4.6000   -0.0250 H   0  0  0  0  0  0  0  0  0  0  0  0
   17.6620   -6.9340   -0.4060 H   0  0  0  0  0  0  0  0  0  0  0  0
   16.1110   -8.4660   -1.5840 H   0  0  0  0  0  0  0  0  0  0  0  0
   13.9630   -7.5970   -2.4920 H   0  0  0  0  0  0  0  0  0  0  0  0
   13.3570   -5.2350   -2.1940 H   0  0  0  0  0  0  0  0  0  0  0  0
   16.0920   -3.6530   -3.2800 H   0  0  0  0  0  0  0  0  0  0  0  0
   16.9370   -1.9470   -4.8490 H   0  0  0  0  0  0  0  0  0  0  0  0
   16.7040    0.4470   -4.3530 H   0  0  0  0  0  0  0  0  0  0  0  0
   15.4490    2.2870   -4.1500 H   0  0  0  0  0  0  0  0  0  0  0  0
   15.0280    4.6610   -3.5680 H   0  0  0  0  0  0  0  0  0  0  0  0
   14.9460    5.3790   -1.2000 H   0  0  0  0  0  0  0  0  0  0  0  0
   15.3640    3.7200    0.6080 H   0  0  0  0  0  0  0  0  0  0  0  0
   15.8120    1.3690    0.0410 H   0  0  0  0  0  0  0  0  0  0  0  0
   14.8640   -0.4920   -0.5940 H   0  0  0  0  0  0  0  0  0  0  0  0
   13.6370   -2.0530    3.3010 H   0  0  0  0  0  0  0  0  0  0  0  0
  1  2  1  0  0  0  0
  1 27  1  0  0  0  0
  1 28  1  0  0  0  0
  1 29  1  0  0  0  0
  2  3  1  0  0  0  0
  2 25  1  0  0  0  0
  3  4  1  1  0  0  0
  3  5  1  0  0  0  0
  4 30  1  0  0  0  0
  4 46  1  0  0  0  0
  5  6  1  0  0  0  0
  5 31  1  0  0  0  0
  6  7  1  6  0  0  0
  6 13  1  0  0  0  0
  6 25  1  0  0  0  0
  7  8  2  0  0  0  0
  7 12  1  0  0  0  0
  8  9  1  0  0  0  0
  8 32  1  0  0  0  0
  9 10  2  0  0  0  0
  9 33  1  0  0  0  0
 10 11  1  0  0  0  0
 10 34  1  0  0  0  0
 11 12  2  0  0  0  0
 11 35  1  0  0  0  0
 12 36  1  0  0  0  0
 13 14  2  0  0  0  0
 13 24  1  0  0  0  0
 14 15  1  0  0  0  0
 14 37  1  0  0  0  0
 15 16  2  0  0  0  0
 15 38  1  0  0  0  0
 16 17  1  0  0  0  0
 16 39  1  0  0  0  0
 17 18  1  0  0  0  0
 17 24  2  0  0  0  0
 18 19  2  0  0  0  0
 18 23  1  0  0  0  0
 19 20  1  0  0  0  0
 19 40  1  0  0  0  0
 20 21  2  0  0  0  0
 20 41  1  0  0  0  0
 21 22  1  0  0  0  0
 21 42  1  0  0  0  0
 22 23  2  0  0  0  0
 22 43  1  0  0  0  0
 23 44  1  0  0  0  0
 24 45  1  0  0  0  0
 25 26  2  0  0  0  0
M  CHG  1   5   1
M  END
