../datasets/input/BACE/poses/31/ligand.pdb
 OpenBabel02191913393D

 45 48  0  0  1  0  0  0  0  0999 V2000
   11.7080   -2.3340    1.2790 C   0  0  0  0  0  0  0  0  0  0  0  0
   13.0270   -2.6810    0.7330 N   0  0  0  0  0  0  0  0  0  0  0  0
   14.1990   -2.6480    1.3820 C   0  0  1  0  0  0  0  0  0  0  0  0
   14.3800   -2.3630    2.6740 N   0  0  0  0  0  0  0  0  0  0  0  0
   15.2170   -2.9460    0.5770 N   0  3  0  0  0  0  0  0  0  0  0  0
   14.7860   -3.2920   -0.7800 C   0  0  2  0  0  0  0  0  0  0  0  0
   15.1320   -4.7730   -1.0530 C   0  0  0  0  0  0  0  0  0  0  0  0
   16.3610   -5.2810   -0.5800 C   0  0  0  0  0  0  0  0  0  0  0  0
   16.7390   -6.6180   -0.7850 C   0  0  0  0  0  0  0  0  0  0  0  0
   15.8670   -7.4920   -1.4440 C   0  0  0  0  0  0  0  0  0  0  0  0
   14.6400   -7.0150   -1.9350 C   0  0  0  0  0  0  0  0  0  0  0  0
   14.2820   -5.6630   -1.7530 C   0  0  0  0  0  0  0  0  0  0  0  0
   15.3660   -2.2950   -1.7990 C   0  0  0  0  0  0  0  0  0  0  0  0
   15.9430   -2.7230   -3.0180 C   0  0  0  0  0  0  0  0  0  0  0  0
   16.4290   -1.7760   -3.9350 C   0  0  0  0  0  0  0  0  0  0  0  0
   16.3310   -0.4020   -3.6590 C   0  0  0  0  0  0  0  0  0  0  0  0
   15.7810    0.0630   -2.4470 C   0  0  0  0  0  0  0  0  0  0  0  0
   15.6530    1.5130   -2.1630 C   0  0  0  0  0  0  0  0  0  0  0  0
   15.5220    2.4730   -3.1910 C   0  0  0  0  0  0  0  0  0  0  0  0
   15.3350    3.7920   -2.9800 N   0  0  0  0  0  0  0  0  0  0  0  0
   15.2790    4.2300   -1.7070 C   0  0  0  0  0  0  0  0  0  0  0  0
   15.4380    3.3820   -0.6010 C   0  0  0  0  0  0  0  0  0  0  0  0
   15.3970    3.8650    0.6640 F   0  0  0  0  0  0  0  0  0  0  0  0
   15.6330    2.0130   -0.8420 C   0  0  0  0  0  0  0  0  0  0  0  0
   15.3160   -0.9040   -1.5260 C   0  0  0  0  0  0  0  0  0  0  0  0
   13.2670   -3.0500   -0.6250 C   0  0  0  0  0  0  0  0  0  0  0  0
   12.3850   -3.1140   -1.4900 O   0  0  0  0  0  0  0  0  0  0  0  0
   11.6550   -2.5570    2.3440 H   0  0  0  0  0  0  0  0  0  0  0  0
   11.5250   -1.2690    1.1370 H   0  0  0  0  0  0  0  0  0  0  0  0
   10.9130   -2.8850    0.7780 H   0  0  0  0  0  0  0  0  0  0  0  0
   15.3270   -2.3640    3.0580 H   0  0  0  0  0  0  0  0  0  0  0  0
   16.1980   -2.9380    0.8560 H   0  0  0  0  0  0  0  0  0  0  0  0
   17.0280   -4.6430   -0.0290 H   0  0  0  0  0  0  0  0  0  0  0  0
   17.6890   -6.9710   -0.4080 H   0  0  0  0  0  0  0  0  0  0  0  0
   16.1440   -8.5260   -1.5530 H   0  0  0  0  0  0  0  0  0  0  0  0
   13.9720   -7.6890   -2.4490 H   0  0  0  0  0  0  0  0  0  0  0  0
   13.3370   -5.3350   -2.1500 H   0  0  0  0  0  0  0  0  0  0  0  0
   16.0210   -3.7710   -3.2730 H   0  0  0  0  0  0  0  0  0  0  0  0
   16.8710   -2.0940   -4.8680 H   0  0  0  0  0  0  0  0  0  0  0  0
   16.6870    0.2930   -4.4030 H   0  0  0  0  0  0  0  0  0  0  0  0
   15.5280    2.1750   -4.2290 H   0  0  0  0  0  0  0  0  0  0  0  0
   15.1000    5.2850   -1.5660 H   0  0  0  0  0  0  0  0  0  0  0  0
   15.7730    1.3510   -0.0060 H   0  0  0  0  0  0  0  0  0  0  0  0
   14.8710   -0.5690   -0.6010 H   0  0  0  0  0  0  0  0  0  0  0  0
   13.6420   -2.0670    3.3100 H   0  0  0  0  0  0  0  0  0  0  0  0
  1  2  1  0  0  0  0
  1 28  1  0  0  0  0
  1 29  1  0  0  0  0
  1 30  1  0  0  0  0
  2  3  1  0  0  0  0
  2 26  1  0  0  0  0
  3  4  1  1  0  0  0
  3  5  1  0  0  0  0
  4 31  1  0  0  0  0
  4 45  1  0  0  0  0
  5  6  1  0  0  0  0
  5 32  1  0  0  0  0
  6  7  1  6  0  0  0
  6 13  1  0  0  0  0
  6 26  1  0  0  0  0
  7  8  2  0  0  0  0
  7 12  1  0  0  0  0
  8  9  1  0  0  0  0
  8 33  1  0  0  0  0
  9 10  2  0  0  0  0
  9 34  1  0  0  0  0
 10 11  1  0  0  0  0
 10 35  1  0  0  0  0
 11 12  2  0  0  0  0
 11 36  1  0  0  0  0
 12 37  1  0  0  0  0
 13 14  2  0  0  0  0
 13 25  1  0  0  0  0
 14 15  1  0  0  0  0
 14 38  1  0  0  0  0
 15 16  2  0  0  0  0
 15 39  1  0  0  0  0
 16 17  1  0  0  0  0
 16 40  1  0  0  0  0
 17 18  1  0  0  0  0
 17 25  2  0  0  0  0
 18 19  2  0  0  0  0
 18 24  1  0  0  0  0
 19 20  1  0  0  0  0
 19 41  1  0  0  0  0
 20 21  2  0  0  0  0
 21 22  1  0  0  0  0
 21 42  1  0  0  0  0
 22 23  1  0  0  0  0
 22 24  2  0  0  0  0
 24 43  1  0  0  0  0
 25 44  1  0  0  0  0
 26 27  2  0  0  0  0
M  CHG  1   5   1
M  END
