../datasets/input/BACE/poses/12/ligand.pdb
 OpenBabel02191913393D

 43 46  0  0  1  0  0  0  0  0999 V2000
   11.7270   -2.5840    1.3290 C   0  0  0  0  0  0  0  0  0  0  0  0
   13.0530   -2.6450    0.7060 N   0  0  0  0  0  0  0  0  0  0  0  0
   14.2320   -2.5930    1.3460 C   0  0  1  0  0  0  0  0  0  0  0  0
   14.4070   -2.4120    2.6580 N   0  0  0  0  0  0  0  0  0  0  0  0
   15.2570   -2.7750    0.5130 N   0  3  0  0  0  0  0  0  0  0  0  0
   14.8120   -3.0760   -0.8430 C   0  0  1  0  0  0  0  0  0  0  0  0
   15.3590   -2.0160   -1.8440 C   0  0  0  0  0  0  0  0  0  0  0  0
   16.0200   -2.3190   -3.0600 C   0  0  0  0  0  0  0  0  0  0  0  0
   16.4380   -1.2950   -3.9240 C   0  0  0  0  0  0  0  0  0  0  0  0
   16.1810    0.0500   -3.6160 C   0  0  0  0  0  0  0  0  0  0  0  0
   15.5430    0.4050   -2.4120 C   0  0  0  0  0  0  0  0  0  0  0  0
   15.2160    1.8210   -2.1140 C   0  0  0  0  0  0  0  0  0  0  0  0
   15.3570    2.3660   -0.8160 C   0  0  0  0  0  0  0  0  0  0  0  0
   14.9850    3.7010   -0.5360 C   0  0  0  0  0  0  0  0  0  0  0  0
   15.1560    4.3440    1.0550 Cl  0  0  0  0  0  0  0  0  0  0  0  0
   14.4610    4.5130   -1.5550 C   0  0  0  0  0  0  0  0  0  0  0  0
   14.3210    3.9930   -2.8520 C   0  0  0  0  0  0  0  0  0  0  0  0
   13.6520    4.9770   -4.0970 Cl  0  0  0  0  0  0  0  0  0  0  0  0
   14.7050    2.6650   -3.1280 C   0  0  0  0  0  0  0  0  0  0  0  0
   15.1680   -0.6370   -1.5330 C   0  0  0  0  0  0  0  0  0  0  0  0
   15.0320   -4.5980   -1.0300 C   0  0  0  0  0  0  0  0  0  0  0  0
   14.8680   -5.3410   -2.3310 C   0  0  0  0  0  0  0  0  0  0  0  0
   16.2130   -5.2990   -1.6570 C   0  0  0  0  0  0  0  0  0  0  0  0
   13.2930   -2.8880   -0.6770 C   0  0  0  0  0  0  0  0  0  0  0  0
   12.4120   -2.9820   -1.5380 O   0  0  0  0  0  0  0  0  0  0  0  0
   11.4700   -3.5570    1.7450 H   0  0  0  0  0  0  0  0  0  0  0  0
   11.7370   -1.8710    2.1450 H   0  0  0  0  0  0  0  0  0  0  0  0
   10.9530   -2.2890    0.6210 H   0  0  0  0  0  0  0  0  0  0  0  0
   13.6640   -2.1510    3.3040 H   0  0  0  0  0  0  0  0  0  0  0  0
   16.2400   -2.7840    0.7870 H   0  0  0  0  0  0  0  0  0  0  0  0
   16.2290   -3.3150   -3.3990 H   0  0  0  0  0  0  0  0  0  0  0  0
   16.9460   -1.5530   -4.8430 H   0  0  0  0  0  0  0  0  0  0  0  0
   16.4790    0.8090   -4.3260 H   0  0  0  0  0  0  0  0  0  0  0  0
   15.7510    1.7580   -0.0170 H   0  0  0  0  0  0  0  0  0  0  0  0
   14.1590    5.5300   -1.3430 H   0  0  0  0  0  0  0  0  0  0  0  0
   14.5640    2.2800   -4.1280 H   0  0  0  0  0  0  0  0  0  0  0  0
   14.6630   -0.3620   -0.6210 H   0  0  0  0  0  0  0  0  0  0  0  0
   14.6220   -5.1530   -0.1850 H   0  0  0  0  0  0  0  0  0  0  0  0
   14.3020   -6.2720   -2.3060 H   0  0  0  0  0  0  0  0  0  0  0  0
   14.7450   -4.7530   -3.2260 H   0  0  0  0  0  0  0  0  0  0  0  0
   16.9720   -4.7220   -2.1490 H   0  0  0  0  0  0  0  0  0  0  0  0
   16.5740   -6.2030   -1.1700 H   0  0  0  0  0  0  0  0  0  0  0  0
   15.3570   -2.4020    3.0360 H   0  0  0  0  0  0  0  0  0  0  0  0
  1  2  1  0  0  0  0
  1 26  1  0  0  0  0
  1 27  1  0  0  0  0
  1 28  1  0  0  0  0
  2  3  1  0  0  0  0
  2 24  1  0  0  0  0
  3  4  1  1  0  0  0
  3  5  1  0  0  0  0
  4 29  1  0  0  0  0
  4 43  1  0  0  0  0
  5  6  1  0  0  0  0
  5 30  1  0  0  0  0
  6  7  1  6  0  0  0
  6 21  1  0  0  0  0
  6 24  1  0  0  0  0
  7  8  2  0  0  0  0
  7 20  1  0  0  0  0
  8  9  1  0  0  0  0
  8 31  1  0  0  0  0
  9 10  2  0  0  0  0
  9 32  1  0  0  0  0
 10 11  1  0  0  0  0
 10 33  1  0  0  0  0
 11 12  1  0  0  0  0
 11 20  2  0  0  0  0
 12 13  2  0  0  0  0
 12 19  1  0  0  0  0
 13 14  1  0  0  0  0
 13 34  1  0  0  0  0
 14 15  1  0  0  0  0
 14 16  2  0  0  0  0
 16 17  1  0  0  0  0
 16 35  1  0  0  0  0
 17 18  1  0  0  0  0
 17 19  2  0  0  0  0
 19 36  1  0  0  0  0
 20 37  1  0  0  0  0
 21 22  1  0  0  0  0
 21 23  1  0  0  0  0
 21 38  1  0  0  0  0
 22 23  1  0  0  0  0
 22 39  1  0  0  0  0
 22 40  1  0  0  0  0
 23 41  1  0  0  0  0
 23 42  1  0  0  0  0
 24 25  2  0  0  0  0
M  CHG  1   5   1
M  END
