../datasets/input/BACE/poses/33/ligand.pdb
 OpenBabel02191913393D

 45 48  0  0  1  0  0  0  0  0999 V2000
   11.6960   -2.2640    1.2650 C   0  0  0  0  0  0  0  0  0  0  0  0
   13.0210   -2.5150    0.6890 N   0  0  0  0  0  0  0  0  0  0  0  0
   14.1990   -2.5220    1.3340 C   0  0  1  0  0  0  0  0  0  0  0  0
   14.3750   -2.3540    2.6480 N   0  0  0  0  0  0  0  0  0  0  0  0
   15.2240   -2.7250    0.5040 N   0  3  0  0  0  0  0  0  0  0  0  0
   14.7660   -3.0200   -0.8500 C   0  0  1  0  0  0  0  0  0  0  0  0
   15.3110   -1.9900   -1.8760 C   0  0  0  0  0  0  0  0  0  0  0  0
   15.6770   -2.3430   -3.1990 C   0  0  0  0  0  0  0  0  0  0  0  0
   16.1750   -1.3670   -4.0760 C   0  0  0  0  0  0  0  0  0  0  0  0
   16.1930   -0.0120   -3.7020 C   0  0  0  0  0  0  0  0  0  0  0  0
   15.7280    0.4000   -2.4340 C   0  0  0  0  0  0  0  0  0  0  0  0
   15.5350    1.8410   -2.1140 C   0  0  0  0  0  0  0  0  0  0  0  0
   15.2020    2.7620   -3.1390 C   0  0  0  0  0  0  0  0  0  0  0  0
   14.8790    4.1030   -2.8500 C   0  0  0  0  0  0  0  0  0  0  0  0
   14.8910    4.5600   -1.5220 C   0  0  0  0  0  0  0  0  0  0  0  0
   15.2550    3.6780   -0.4910 C   0  0  0  0  0  0  0  0  0  0  0  0
   15.2850    4.2510    1.1370 Cl  0  0  0  0  0  0  0  0  0  0  0  0
   15.5760    2.3370   -0.7870 C   0  0  0  0  0  0  0  0  0  0  0  0
   15.3580   -0.6130   -1.5170 C   0  0  0  0  0  0  0  0  0  0  0  0
   15.0380   -4.5320   -1.0580 C   0  0  0  0  0  0  0  0  0  0  0  0
   16.1910   -4.9950   -1.7180 C   0  0  0  0  0  0  0  0  0  0  0  0
   16.4400   -6.3690   -1.8210 C   0  0  0  0  0  0  0  0  0  0  0  0
   15.5360   -7.2610   -1.2300 C   0  0  0  0  0  0  0  0  0  0  0  0
   14.4410   -6.7310   -0.5350 C   0  0  0  0  0  0  0  0  0  0  0  0
   14.2060   -5.4070   -0.4350 N   0  0  0  0  0  0  0  0  0  0  0  0
   13.2560   -2.7590   -0.6950 C   0  0  0  0  0  0  0  0  0  0  0  0
   12.3800   -2.7350   -1.5710 O   0  0  0  0  0  0  0  0  0  0  0  0
   11.6760   -2.5190    2.3230 H   0  0  0  0  0  0  0  0  0  0  0  0
   11.4470   -1.2120    1.1460 H   0  0  0  0  0  0  0  0  0  0  0  0
   10.9320   -2.8550    0.7590 H   0  0  0  0  0  0  0  0  0  0  0  0
   15.3190   -2.3800    3.0340 H   0  0  0  0  0  0  0  0  0  0  0  0
   16.2000   -2.8170    0.7850 H   0  0  0  0  0  0  0  0  0  0  0  0
   15.6010   -3.3570   -3.5740 H   0  0  0  0  0  0  0  0  0  0  0  0
   16.5120   -1.6640   -5.0570 H   0  0  0  0  0  0  0  0  0  0  0  0
   16.5310    0.7130   -4.4280 H   0  0  0  0  0  0  0  0  0  0  0  0
   15.1300    2.4280   -4.1640 H   0  0  0  0  0  0  0  0  0  0  0  0
   14.5890    4.7790   -3.6410 H   0  0  0  0  0  0  0  0  0  0  0  0
   14.6220    5.5820   -1.2920 H   0  0  0  0  0  0  0  0  0  0  0  0
   15.8350    1.6820    0.0280 H   0  0  0  0  0  0  0  0  0  0  0  0
   15.0130   -0.3140   -0.5390 H   0  0  0  0  0  0  0  0  0  0  0  0
   16.8850   -4.2980   -2.1490 H   0  0  0  0  0  0  0  0  0  0  0  0
   17.3210   -6.7180   -2.3300 H   0  0  0  0  0  0  0  0  0  0  0  0
   15.6890   -8.3280   -1.2780 H   0  0  0  0  0  0  0  0  0  0  0  0
   13.7480   -7.3830   -0.0240 H   0  0  0  0  0  0  0  0  0  0  0  0
   13.6330   -2.0830    3.2910 H   0  0  0  0  0  0  0  0  0  0  0  0
  1  2  1  0  0  0  0
  1 28  1  0  0  0  0
  1 29  1  0  0  0  0
  1 30  1  0  0  0  0
  2  3  1  0  0  0  0
  2 26  1  0  0  0  0
  3  4  1  1  0  0  0
  3  5  1  0  0  0  0
  4 31  1  0  0  0  0
  4 45  1  0  0  0  0
  5  6  1  0  0  0  0
  5 32  1  0  0  0  0
  6  7  1  6  0  0  0
  6 20  1  0  0  0  0
  6 26  1  0  0  0  0
  7  8  2  0  0  0  0
  7 19  1  0  0  0  0
  8  9  1  0  0  0  0
  8 33  1  0  0  0  0
  9 10  2  0  0  0  0
  9 34  1  0  0  0  0
 10 11  1  0  0  0  0
 10 35  1  0  0  0  0
 11 12  1  0  0  0  0
 11 19  2  0  0  0  0
 12 13  2  0  0  0  0
 12 18  1  0  0  0  0
 13 14  1  0  0  0  0
 13 36  1  0  0  0  0
 14 15  2  0  0  0  0
 14 37  1  0  0  0  0
 15 16  1  0  0  0  0
 15 38  1  0  0  0  0
 16 17  1  0  0  0  0
 16 18  2  0  0  0  0
 18 39  1  0  0  0  0
 19 40  1  0  0  0  0
 20 21  2  0  0  0  0
 20 25  1  0  0  0  0
 21 22  1  0  0  0  0
 21 41  1  0  0  0  0
 22 23  2  0  0  0  0
 22 42  1  0  0  0  0
 23 24  1  0  0  0  0
 23 43  1  0  0  0  0
 24 25  2  0  0  0  0
 24 44  1  0  0  0  0
 26 27  2  0  0  0  0
M  CHG  1   5   1
M  END
