../datasets/input/BACE/poses/22/ligand.pdb
 OpenBabel02191913393D

 47 50  0  0  1  0  0  0  0  0999 V2000
   14.8880    4.7760    1.2260 C   0  0  0  0  0  0  0  0  0  0  0  0
   15.4960    3.5600    0.8390 O   0  0  0  0  0  0  0  0  0  0  0  0
   15.4240    3.2070   -0.4880 C   0  0  0  0  0  0  0  0  0  0  0  0
   15.1330    4.1080   -1.5370 C   0  0  0  0  0  0  0  0  0  0  0  0
   15.1100    3.6470   -2.8640 C   0  0  0  0  0  0  0  0  0  0  0  0
   15.3680    2.2910   -3.1540 C   0  0  0  0  0  0  0  0  0  0  0  0
   15.6270    1.3620   -2.1170 C   0  0  0  0  0  0  0  0  0  0  0  0
   15.8150   -0.0830   -2.3950 C   0  0  0  0  0  0  0  0  0  0  0  0
   16.3950   -0.4890   -3.6080 C   0  0  0  0  0  0  0  0  0  0  0  0
   16.5050   -1.8470   -3.9390 C   0  0  0  0  0  0  0  0  0  0  0  0
   16.0400   -2.8370   -3.0550 C   0  0  0  0  0  0  0  0  0  0  0  0
   15.4690   -2.4840   -1.8060 C   0  0  0  0  0  0  0  0  0  0  0  0
   14.8770   -3.4950   -0.7770 C   0  0  1  0  0  0  0  0  0  0  0  0
   15.0970   -5.0250   -0.8830 C   0  0  0  0  0  0  0  0  0  0  0  0
   14.8830   -5.8410   -2.1340 C   0  0  0  0  0  0  0  0  0  0  0  0
   16.2580   -5.7570   -1.5170 C   0  0  0  0  0  0  0  0  0  0  0  0
   15.2830   -3.1270    0.5770 N   0  3  0  0  0  0  0  0  0  0  0  0
   14.2460   -2.7940    1.3470 C   0  0  2  0  0  0  0  0  0  0  0  0
   14.3920   -2.4610    2.6340 N   0  0  0  0  0  0  0  0  0  0  0  0
   13.0880   -2.8500    0.6740 N   0  0  0  0  0  0  0  0  0  0  0  0
   11.7610   -2.5500    1.2230 C   0  0  0  0  0  0  0  0  0  0  0  0
   13.3580   -3.2550   -0.6670 C   0  0  0  0  0  0  0  0  0  0  0  0
   12.4980   -3.3910   -1.5420 O   0  0  0  0  0  0  0  0  0  0  0  0
   15.3880   -1.0940   -1.5000 C   0  0  0  0  0  0  0  0  0  0  0  0
   15.6600    1.8540   -0.7970 C   0  0  0  0  0  0  0  0  0  0  0  0
   14.9250    4.8680    2.3120 H   0  0  0  0  0  0  0  0  0  0  0  0
   15.3960    5.6330    0.7980 H   0  0  0  0  0  0  0  0  0  0  0  0
   13.8480    4.8040    0.9120 H   0  0  0  0  0  0  0  0  0  0  0  0
   14.9340    5.1530   -1.3550 H   0  0  0  0  0  0  0  0  0  0  0  0
   14.8810    4.3380   -3.6570 H   0  0  0  0  0  0  0  0  0  0  0  0
   15.3230    1.9590   -4.1830 H   0  0  0  0  0  0  0  0  0  0  0  0
   16.7450    0.2550   -4.3050 H   0  0  0  0  0  0  0  0  0  0  0  0
   16.9430   -2.1070   -4.8910 H   0  0  0  0  0  0  0  0  0  0  0  0
   16.1430   -3.8500   -3.3920 H   0  0  0  0  0  0  0  0  0  0  0  0
   14.7320   -5.5260    0.0160 H   0  0  0  0  0  0  0  0  0  0  0  0
   14.3440   -6.7810   -2.0390 H   0  0  0  0  0  0  0  0  0  0  0  0
   14.6920   -5.3030   -3.0520 H   0  0  0  0  0  0  0  0  0  0  0  0
   17.0100   -5.2040   -2.0610 H   0  0  0  0  0  0  0  0  0  0  0  0
   16.6260   -6.6390   -0.9950 H   0  0  0  0  0  0  0  0  0  0  0  0
   16.2620   -3.0820    0.8650 H   0  0  0  0  0  0  0  0  0  0  0  0
   13.6430   -2.1220    3.2370 H   0  0  0  0  0  0  0  0  0  0  0  0
   11.8060   -1.5720    1.6900 H   0  0  0  0  0  0  0  0  0  0  0  0
   11.4780   -3.2830    1.9790 H   0  0  0  0  0  0  0  0  0  0  0  0
   10.9880   -2.5220    0.4540 H   0  0  0  0  0  0  0  0  0  0  0  0
   14.9340   -0.7830   -0.5720 H   0  0  0  0  0  0  0  0  0  0  0  0
   15.8580    1.1780    0.0150 H   0  0  0  0  0  0  0  0  0  0  0  0
   15.3340   -2.4340    3.0260 H   0  0  0  0  0  0  0  0  0  0  0  0
  1  2  1  0  0  0  0
  1 26  1  0  0  0  0
  1 27  1  0  0  0  0
  1 28  1  0  0  0  0
  2  3  1  0  0  0  0
  3  4  2  0  0  0  0
  3 25  1  0  0  0  0
  4  5  1  0  0  0  0
  4 29  1  0  0  0  0
  5  6  2  0  0  0  0
  5 30  1  0  0  0  0
  6  7  1  0  0  0  0
  6 31  1  0  0  0  0
  7  8  1  0  0  0  0
  7 25  2  0  0  0  0
  8  9  2  0  0  0  0
  8 24  1  0  0  0  0
  9 10  1  0  0  0  0
  9 32  1  0  0  0  0
 10 11  2  0  0  0  0
 10 33  1  0  0  0  0
 11 12  1  0  0  0  0
 11 34  1  0  0  0  0
 12 24  2  0  0  0  0
 13 12  1  6  0  0  0
 13 14  1  0  0  0  0
 13 17  1  0  0  0  0
 13 22  1  0  0  0  0
 14 15  1  0  0  0  0
 14 16  1  0  0  0  0
 14 35  1  0  0  0  0
 15 16  1  0  0  0  0
 15 36  1  0  0  0  0
 15 37  1  0  0  0  0
 16 38  1  0  0  0  0
 16 39  1  0  0  0  0
 17 18  1  0  0  0  0
 17 40  1  0  0  0  0
 18 19  1  1  0  0  0
 18 20  1  0  0  0  0
 19 41  1  0  0  0  0
 19 47  1  0  0  0  0
 20 21  1  0  0  0  0
 20 22  1  0  0  0  0
 21 42  1  0  0  0  0
 21 43  1  0  0  0  0
 21 44  1  0  0  0  0
 22 23  2  0  0  0  0
 24 45  1  0  0  0  0
 25 46  1  0  0  0  0
M  CHG  1  17   1
M  END
