../datasets/input/BACE/poses/06/ligand.pdb
 OpenBabel02191913393D

 44 47  0  0  1  0  0  0  0  0999 V2000
   11.7750   -2.0500    1.1860 C   0  0  0  0  0  0  0  0  0  0  0  0
   13.0810   -2.4050    0.6210 N   0  0  0  0  0  0  0  0  0  0  0  0
   14.2520   -2.5120    1.2700 C   0  0  1  0  0  0  0  0  0  0  0  0
   14.4440   -2.3220    2.5810 N   0  0  0  0  0  0  0  0  0  0  0  0
   15.2420   -2.8670    0.4440 N   0  3  0  0  0  0  0  0  0  0  0  0
   14.7740   -3.0860   -0.9270 C   0  0  2  0  0  0  0  0  0  0  0  0
   14.9000   -4.5950   -1.2710 C   0  0  0  0  0  0  0  0  0  0  0  0
   16.0470   -5.1640   -1.8460 C   0  0  0  0  0  0  0  0  0  0  0  0
   16.1700   -6.4830   -2.0820 N   0  0  0  0  0  0  0  0  0  0  0  0
   15.1540   -7.2490   -1.7240 C   0  0  0  0  0  0  0  0  0  0  0  0
   14.0440   -6.8480   -1.1290 N   0  0  0  0  0  0  0  0  0  0  0  0
   13.9100   -5.5340   -0.9210 C   0  0  0  0  0  0  0  0  0  0  0  0
   15.3790   -2.0450   -1.9000 C   0  0  0  0  0  0  0  0  0  0  0  0
   15.8330   -2.3840   -3.1970 C   0  0  0  0  0  0  0  0  0  0  0  0
   16.3420   -1.3950   -4.0510 C   0  0  0  0  0  0  0  0  0  0  0  0
   16.3040   -0.0420   -3.6750 C   0  0  0  0  0  0  0  0  0  0  0  0
   15.7980    0.3540   -2.4200 C   0  0  0  0  0  0  0  0  0  0  0  0
   15.5970    1.7920   -2.0980 C   0  0  0  0  0  0  0  0  0  0  0  0
   15.2950    2.7190   -3.1260 C   0  0  0  0  0  0  0  0  0  0  0  0
   14.9740    4.0600   -2.8360 C   0  0  0  0  0  0  0  0  0  0  0  0
   14.9640    4.5100   -1.5060 C   0  0  0  0  0  0  0  0  0  0  0  0
   15.3030    3.6220   -0.4730 C   0  0  0  0  0  0  0  0  0  0  0  0
   15.3090    4.1920    1.1560 Cl  0  0  0  0  0  0  0  0  0  0  0  0
   15.6160    2.2790   -0.7700 C   0  0  0  0  0  0  0  0  0  0  0  0
   15.4020   -0.6710   -1.5260 C   0  0  0  0  0  0  0  0  0  0  0  0
   13.2880   -2.7180   -0.7540 C   0  0  0  0  0  0  0  0  0  0  0  0
   12.3960   -2.7760   -1.6050 O   0  0  0  0  0  0  0  0  0  0  0  0
   10.9780   -2.6470    0.7440 H   0  0  0  0  0  0  0  0  0  0  0  0
   11.7570   -2.2170    2.2630 H   0  0  0  0  0  0  0  0  0  0  0  0
   11.5610   -1.0000    0.9840 H   0  0  0  0  0  0  0  0  0  0  0  0
   15.3900   -2.3980    2.9630 H   0  0  0  0  0  0  0  0  0  0  0  0
   16.2250   -2.9100    0.7180 H   0  0  0  0  0  0  0  0  0  0  0  0
   16.8880   -4.5570   -2.1240 H   0  0  0  0  0  0  0  0  0  0  0  0
   15.2630   -8.3090   -1.8720 H   0  0  0  0  0  0  0  0  0  0  0  0
   12.9970   -5.2630   -0.4150 H   0  0  0  0  0  0  0  0  0  0  0  0
   15.7950   -3.3850   -3.5940 H   0  0  0  0  0  0  0  0  0  0  0  0
   16.7240   -1.6740   -5.0220 H   0  0  0  0  0  0  0  0  0  0  0  0
   16.6360    0.6970   -4.3900 H   0  0  0  0  0  0  0  0  0  0  0  0
   15.2470    2.3930   -4.1560 H   0  0  0  0  0  0  0  0  0  0  0  0
   14.7000    4.7390   -3.6310 H   0  0  0  0  0  0  0  0  0  0  0  0
   14.6920    5.5290   -1.2780 H   0  0  0  0  0  0  0  0  0  0  0  0
   15.8580    1.6170    0.0450 H   0  0  0  0  0  0  0  0  0  0  0  0
   15.0170   -0.3790   -0.5610 H   0  0  0  0  0  0  0  0  0  0  0  0
   13.7270   -2.0000    3.2300 H   0  0  0  0  0  0  0  0  0  0  0  0
  1  2  1  0  0  0  0
  1 28  1  0  0  0  0
  1 29  1  0  0  0  0
  1 30  1  0  0  0  0
  2  3  1  0  0  0  0
  2 26  1  0  0  0  0
  3  4  1  1  0  0  0
  3  5  1  0  0  0  0
  4 31  1  0  0  0  0
  4 44  1  0  0  0  0
  5  6  1  0  0  0  0
  5 32  1  0  0  0  0
  6  7  1  6  0  0  0
  6 13  1  0  0  0  0
  6 26  1  0  0  0  0
  7  8  2  0  0  0  0
  7 12  1  0  0  0  0
  8  9  1  0  0  0  0
  8 33  1  0  0  0  0
  9 10  2  0  0  0  0
 10 11  1  0  0  0  0
 10 34  1  0  0  0  0
 11 12  2  0  0  0  0
 12 35  1  0  0  0  0
 13 14  2  0  0  0  0
 13 25  1  0  0  0  0
 14 15  1  0  0  0  0
 14 36  1  0  0  0  0
 15 16  2  0  0  0  0
 15 37  1  0  0  0  0
 16 17  1  0  0  0  0
 16 38  1  0  0  0  0
 17 18  1  0  0  0  0
 17 25  2  0  0  0  0
 18 19  2  0  0  0  0
 18 24  1  0  0  0  0
 19 20  1  0  0  0  0
 19 39  1  0  0  0  0
 20 21  2  0  0  0  0
 20 40  1  0  0  0  0
 21 22  1  0  0  0  0
 21 41  1  0  0  0  0
 22 23  1  0  0  0  0
 22 24  2  0  0  0  0
 24 42  1  0  0  0  0
 25 43  1  0  0  0  0
 26 27  2  0  0  0  0
M  CHG  1   5   1
M  END
