../datasets/input/BACE/poses/11/ligand.pdb
 OpenBabel02191913393D

 45 48  0  0  1  0  0  0  0  0999 V2000
   11.7400   -2.2130    1.2310 C   0  0  0  0  0  0  0  0  0  0  0  0
   13.0680   -2.5560    0.7090 N   0  0  0  0  0  0  0  0  0  0  0  0
   14.2260   -2.5680    1.3850 C   0  0  1  0  0  0  0  0  0  0  0  0
   14.3830   -2.3340    2.6890 N   0  0  0  0  0  0  0  0  0  0  0  0
   15.2560   -2.8610    0.5930 N   0  3  0  0  0  0  0  0  0  0  0  0
   14.8530   -3.1590   -0.7800 C   0  0  2  0  0  0  0  0  0  0  0  0
   15.1440   -4.6470   -1.0920 C   0  0  0  0  0  0  0  0  0  0  0  0
   14.2640   -5.4800   -1.8170 C   0  0  0  0  0  0  0  0  0  0  0  0
   14.5640   -6.8430   -1.9700 C   0  0  0  0  0  0  0  0  0  0  0  0
   15.7570   -7.3360   -1.4320 C   0  0  0  0  0  0  0  0  0  0  0  0
   16.6210   -6.5580   -0.7670 N   0  0  0  0  0  0  0  0  0  0  0  0
   16.3170   -5.2550   -0.6050 C   0  0  0  0  0  0  0  0  0  0  0  0
   15.4650   -2.1400   -1.7600 C   0  0  0  0  0  0  0  0  0  0  0  0
   16.0950   -2.5440   -2.9590 C   0  0  0  0  0  0  0  0  0  0  0  0
   16.5720   -1.5780   -3.8630 C   0  0  0  0  0  0  0  0  0  0  0  0
   16.4070   -0.2070   -3.5900 C   0  0  0  0  0  0  0  0  0  0  0  0
   15.8150    0.2380   -2.3890 C   0  0  0  0  0  0  0  0  0  0  0  0
   15.6040    1.6830   -2.1190 C   0  0  0  0  0  0  0  0  0  0  0  0
   15.3470    2.5920   -3.1730 C   0  0  0  0  0  0  0  0  0  0  0  0
   15.0380    3.9440   -2.9130 C   0  0  0  0  0  0  0  0  0  0  0  0
   15.0070    4.4210   -1.5930 C   0  0  0  0  0  0  0  0  0  0  0  0
   15.3050    3.5500   -0.5350 C   0  0  0  0  0  0  0  0  0  0  0  0
   15.2910    4.1520    1.0820 Cl  0  0  0  0  0  0  0  0  0  0  0  0
   15.6000    2.1970   -0.7990 C   0  0  0  0  0  0  0  0  0  0  0  0
   15.3710   -0.7500   -1.4800 C   0  0  0  0  0  0  0  0  0  0  0  0
   13.3360   -2.8870   -0.6510 C   0  0  0  0  0  0  0  0  0  0  0  0
   12.4740   -2.9290   -1.5360 O   0  0  0  0  0  0  0  0  0  0  0  0
   11.5520   -1.1510    1.0730 H   0  0  0  0  0  0  0  0  0  0  0  0
   10.9570   -2.7750    0.7220 H   0  0  0  0  0  0  0  0  0  0  0  0
   11.6700   -2.4250    2.2970 H   0  0  0  0  0  0  0  0  0  0  0  0
   15.3230   -2.3540    3.0890 H   0  0  0  0  0  0  0  0  0  0  0  0
   16.2330   -2.8550    0.8930 H   0  0  0  0  0  0  0  0  0  0  0  0
   13.3410   -5.1090   -2.2190 H   0  0  0  0  0  0  0  0  0  0  0  0
   13.8940   -7.5090   -2.4900 H   0  0  0  0  0  0  0  0  0  0  0  0
   16.0230   -8.3770   -1.5220 H   0  0  0  0  0  0  0  0  0  0  0  0
   17.0110   -4.6880   -0.0140 H   0  0  0  0  0  0  0  0  0  0  0  0
   16.2120   -3.5880   -3.2170 H   0  0  0  0  0  0  0  0  0  0  0  0
   17.0460   -1.8830   -4.7860 H   0  0  0  0  0  0  0  0  0  0  0  0
   16.7360    0.5090   -4.3260 H   0  0  0  0  0  0  0  0  0  0  0  0
   15.3300    2.2450   -4.1960 H   0  0  0  0  0  0  0  0  0  0  0  0
   14.7900    4.6180   -3.7180 H   0  0  0  0  0  0  0  0  0  0  0  0
   14.7490    5.4510   -1.3900 H   0  0  0  0  0  0  0  0  0  0  0  0
   15.8200    1.5470    0.0300 H   0  0  0  0  0  0  0  0  0  0  0  0
   14.8910   -0.4240   -0.5700 H   0  0  0  0  0  0  0  0  0  0  0  0
   13.6380   -2.0380    3.3180 H   0  0  0  0  0  0  0  0  0  0  0  0
  1  2  1  0  0  0  0
  1 28  1  0  0  0  0
  1 29  1  0  0  0  0
  1 30  1  0  0  0  0
  2  3  1  0  0  0  0
  2 26  1  0  0  0  0
  3  4  1  1  0  0  0
  3  5  1  0  0  0  0
  4 31  1  0  0  0  0
  4 45  1  0  0  0  0
  5  6  1  0  0  0  0
  5 32  1  0  0  0  0
  6  7  1  6  0  0  0
  6 13  1  0  0  0  0
  6 26  1  0  0  0  0
  7  8  2  0  0  0  0
  7 12  1  0  0  0  0
  8  9  1  0  0  0  0
  8 33  1  0  0  0  0
  9 10  2  0  0  0  0
  9 34  1  0  0  0  0
 10 11  1  0  0  0  0
 10 35  1  0  0  0  0
 11 12  2  0  0  0  0
 12 36  1  0  0  0  0
 13 14  2  0  0  0  0
 13 25  1  0  0  0  0
 14 15  1  0  0  0  0
 14 37  1  0  0  0  0
 15 16  2  0  0  0  0
 15 38  1  0  0  0  0
 16 17  1  0  0  0  0
 16 39  1  0  0  0  0
 17 18  1  0  0  0  0
 17 25  2  0  0  0  0
 18 19  2  0  0  0  0
 18 24  1  0  0  0  0
 19 20  1  0  0  0  0
 19 40  1  0  0  0  0
 20 21  2  0  0  0  0
 20 41  1  0  0  0  0
 21 22  1  0  0  0  0
 21 42  1  0  0  0  0
 22 23  1  0  0  0  0
 22 24  2  0  0  0  0
 24 43  1  0  0  0  0
 25 44  1  0  0  0  0
 26 27  2  0  0  0  0
M  CHG  1   5   1
M  END
